REMARK  4 active torsions:
REMARK  status: ('A' for Active; 'I' for Inactive)
REMARK    1  A    between atoms: C3_5  and  C10_12 
REMARK    2  A    between atoms: C10_12  and  C1'_13 
REMARK    3  A    between atoms: C4'_16  and  N4'_24 
REMARK    4  A    between atoms: N1'_19  and  C11_20 
ROOT
HETATM    1  C1' SU2 A1001       8.750   4.616  23.254  1.00 54.37    -0.035 A 
HETATM    2  C2' SU2 A1001       9.710   5.470  23.781  1.00 58.87     0.013 A 
HETATM    3  C3' SU2 A1001      10.461   5.100  24.898  1.00 60.77     0.030 A 
HETATM    4  C4' SU2 A1001      10.264   3.868  25.513  1.00 62.10     0.030 A 
HETATM    5  C5' SU2 A1001       9.298   3.017  24.982  1.00 57.95     0.030 A 
HETATM    6  C6' SU2 A1001       8.548   3.386  23.863  1.00 56.28     0.013 A 
ENDROOT
BRANCH   1   7
HETATM    7  C10 SU2 A1001       7.942   5.053  22.036  1.00 47.02     0.029 C 
BRANCH   7   8
HETATM    8  C3  SU2 A1001       7.095   4.165  21.131  1.00 41.97     0.045 A 
HETATM    9  C2  SU2 A1001       6.434   2.994  21.427  1.00 40.11     0.257 A 
HETATM   10  N1  SU2 A1001       5.763   2.531  20.322  1.00 40.50    -0.322 N 
HETATM   11  O2  SU2 A1001       6.373   2.382  22.494  1.00 36.41    -0.267 OA
HETATM   12  C8  SU2 A1001       5.988   3.383  19.272  1.00 40.40     0.046 A 
ATOM     13  H1  SU2 A1001       5.189   1.688  20.288  1.00  0.00     0.169 HD
HETATM   14  C9  SU2 A1001       6.824   4.424  19.740  1.00 41.23     0.006 A 
HETATM   15  C7  SU2 A1001       5.517   3.338  17.955  1.00 37.23     0.030 A 
HETATM   16  C4  SU2 A1001       7.197   5.445  18.850  1.00 37.17     0.015 A 
HETATM   17  C5  SU2 A1001       6.724   5.400  17.547  1.00 35.31     0.001 A 
HETATM   18  C6  SU2 A1001       5.890   4.356  17.114  1.00 35.46     0.002 A 
ENDBRANCH   7   8
ENDBRANCH   1   7
BRANCH   4  19
HETATM   19  N4' SU2 A1001      11.030   3.489  26.650  1.00 66.39    -0.378 N 
HETATM   20  C3B SU2 A1001      10.669   2.264  27.421  1.00 68.84     0.143 C 
HETATM   21  C2B SU2 A1001      11.764   1.713  28.306  1.00 70.94     0.145 C 
HETATM   22  N1' SU2 A1001      12.493   2.711  29.152  1.00 73.20    -0.356 N 
HETATM   23  C6B SU2 A1001      12.819   3.991  28.426  1.00 71.32     0.145 C 
HETATM   24  C5B SU2 A1001      11.751   4.522  27.468  1.00 69.35     0.143 C 
BRANCH  22  25
HETATM   25  C11 SU2 A1001      13.263   2.277  30.281  1.00 76.38     0.350 C 
HETATM   26  O3  SU2 A1001      14.236   2.845  30.785  1.00 80.37    -0.284 OA
ENDBRANCH  22  25
ENDBRANCH   4  19
TORSDOF 4
